* RF4E110BN NMOSFET model
* Model Generated by ROHM
* All Rights Reserved
* Commercial Use or
* Resale Restricted
* Date: 2014/05/15
******************D G S
.SUBCKT RF4E110BN 1 2 3
M1   11 22 3 3 MOS_N
D1         3 1 DDS
R1        1 11 RTH 1.13m
D2       22 11 DDG
R2        2 22 2.0
.MODEL MOS_N NMOS
+ LEVEL=3
+ L=2.0000E-6
+ W=1
+ KP=172.83E-6
+ RS=6.0000E-3
+ RD=0
+ VTO=1.9651
+ RDS=30.000E6
+ TOX=2.0000E-6
+ CGSO=1.04n
+ CGDO=80p
+ CBD=0
+ RG=0
+ N=2
+ RB=1.0000E-3
+ GAMMA=0.5
+ ETA=0.001
+ KAPPA=0
+ NFS=15G
.MODEL DDS D
+ IS=13.551E-12
+ N=1.0457
+ RS=1.7600E-3
+ IKF=12.130
+ CJO=169.58E-12
+ M=.41581
+ VJ=.64737
+ BV=30
+ TT=21n
.MODEL DDG D
+ CJO=571.70E-12
+ M=.77823
+ VJ=.70913
+ N=10000
+ FC=-1.5
.MODEL RTH RES
+ TC1=0.032
+ TC2=0
.ENDS RF4E110BN
