* RF4E110GN NMOSFET model
* Model Generated by ROHM
* All Rights Reserved
* Commercial Use or
* Resale Restricted
* Date: 2013/08/28
******************D G S
.SUBCKT RF4E110GN 1 2 3
M1   11 22 3 3 MOS_N
D1         3 1 DDS
R1        1 11 RTH 654u
D2       22 11 DDG
R2        2 22 10.3
.MODEL MOS_N NMOS
+ LEVEL=3
+ L=2.0000E-6
+ W=1
+ KP=231.98E-6
+ RS=7.0000E-3
+ RD=0
+ VTO=2.2829
+ RDS=30.000E6
+ TOX=2.0000E-6
+ CGSO=428p
+ CGDO=25p
+ CBD=0
+ RG=0
+ N=2
+ RB=1.0000E-3
+ GAMMA=0.8
+ ETA=0.001
+ KAPPA=0
+ NFS=20G
.MODEL DDS D
+ IS=7.2608E-12
+ N=1.0607
+ RS=2.0096E-3
+ IKF=3.3006
+ CJO=503.83E-12
+ M=.46559
+ VJ=.60572
+ BV=30
+ TT=13.5n
.MODEL DDG D
+ CJO=103.83E-12
+ M=.61929
+ VJ=.76971
+ N=10000
+ FC=-1.1
.MODEL RTH RES
+ TC1=0.06
+ TC2=0.000055
.ENDS RF4E110GN
